17

N   -3.1463986229   -0.6591622536   -0.0000007528
C   -2.7163764617   -2.0956433488   0.0008677921
H   -3.1102306211   -2.5821441929   0.8934109377
H   -3.1079812799   -2.5825535799   -0.8924412254
H   -1.6270191786   -2.1402115941   0.002266036
C   -2.6143486926   0.0227363921    1.2247572298
H   -2.9256992014   1.0675616546    1.2119537588
H   -3.014457143    -0.4739718347   2.1088725037
H   -1.5260306531   -0.0418038064   1.2215674278
C   -2.6112409499   0.0221614573    -1.223730102
H   -3.0089885229   -0.475056113    -2.1086234153
H   -2.9227407013   1.0669589902    -1.2122984071
H   -1.5229294873   -0.0422507002   -1.2176282396
C   -4.6439759868   -0.5859811426   -0.0019077897
H   -5.0244484212   -1.0830046144   0.8906828399
H   -4.946977677    0.4613250759    -0.0025993452
H   -5.0222013692   -1.0835491596   -0.8951492887
17

N   0           0           0
C   0.865647    0.865647    0.865647
H   1.491313    1.491313    0.228635
H   0.228635    1.491313    1.491313
H   1.491313    0.228635    1.491313
C   -0.865647   -0.865647   0.865647
H   -1.491313   -0.228635   1.491313
H   -1.491313   -1.491313   0.228635
H   -0.228635   -1.491313   1.491313
C   0.865647    -0.865647   -0.865647
H   0.228635    -1.491313   -1.491313
H   1.491313    -0.228635   -1.491313
H   1.491313    -1.491313   -0.228635
C   -0.865647   0.865647    -0.865647
H   -1.491313   0.228635    -1.491313
H   -1.491313   1.491313    -0.228635
H   -0.228635   1.491313    -1.491313
17

N   0           0           0
C   0.865647    0.865647    0.865647
H   1.491313    1.491313    0.228635
H   0.228635    1.491313    1.491313
H   1.491313    0.228635    1.491313
C   -0.865647   -0.865647   0.865647
H   -1.491313   -0.228635   1.491313
H   -1.491313   -1.491313   0.228635
H   -0.228635   -1.491313   1.491313
C   0.865647    -0.865647   -0.865647
H   0.228635    -1.491313   -1.491313
H   1.491313    -0.228635   -1.491313
H   1.491313    -1.491313   -0.228635
C   -0.865647   0.865647    -0.865647
H   -1.491313   0.228635    -1.491313
H   -1.491313   1.491313    -0.228635
H   -0.228635   1.491313    -1.491313
